
Spectre (R) Circuit Simulator
Version 18.1.0.556.isr13 64bit -- 10 Dec 2019
Copyright (C) 1989-2019 Cadence Design Systems, Inc. All rights reserved worldwide. Cadence and Spectre are registered trademarks of Cadence Design Systems, Inc. All others are the property of their respective holders.

Includes RSA BSAFE(R) Cryptographic or Security Protocol Software from RSA Security, Inc.

User: ckb4640   Host: ras.ece.northwestern.edu   HostID: 69815F07   PID: 2703620
Memory  available: 7.0516 GB  physical: 16.4205 GB
Linux   : Red Hat Enterprise Linux release 8.5 (Ootpa)
CPU Type: Intel(R) Core(TM) i7-9700 CPU @ 3.00GHz
        Socket: Processors [Frequency]
        0:       0 [3000.0],  1 [3000.0],  2 [4469.9],  3 [3000.0],  4 [3000.0]
                 5 [3000.0],  6 [3000.0],  7 [3000.0]
        
System load averages (1min, 5min, 15min) : 5.2 %, 4.5 %, 3.6 %


Simulating `input.scs' on ras.ece.northwestern.edu at 10:18:20 PM, Mon May 2, 2022 (process id: 2703620).
Current working directory: /home/ckb4640/CE_392/simulation/test_shift_reg/spectre/schematic/netlist
Command line:
    /vol/cadence2018/SPECTRE181/tools/bin/spectre -64 input.scs  \
        +escchars +log ../psf/spectre.out +inter=mpsc  \
        +mpssession=spectre2_2680034_5 -format psfxl -raw ../psf  \
        +lqtimeout 900 -maxw 5 -maxn 5
spectre pid = 2703620

Loading /vol/cadence2018/SPECTRE181/tools.lnx86/cmi/lib/64bit/5.0/libinfineon_sh.so ...
Loading /vol/cadence2018/SPECTRE181/tools.lnx86/cmi/lib/64bit/5.0/libphilips_o_sh.so ...
Loading /vol/cadence2018/SPECTRE181/tools.lnx86/cmi/lib/64bit/5.0/libphilips_sh.so ...
Loading /vol/cadence2018/SPECTRE181/tools.lnx86/cmi/lib/64bit/5.0/libsparam_sh.so ...
Loading /vol/cadence2018/SPECTRE181/tools.lnx86/cmi/lib/64bit/5.0/libstmodels_sh.so ...
Reading file:  /home/ckb4640/CE_392/simulation/test_shift_reg/spectre/schematic/netlist/input.scs
Reading file:  /vol/cadence2018/SPECTRE181/tools.lnx86/spectre/etc/configs/spectre.cfg
Reading file:  /vol/eecs391/FreePDK45/ncsu_basekit/models/hspice/hspice_nom.include
Reading file:  /vol/eecs391/FreePDK45/ncsu_basekit/models/hspice/tran_models/models_nom/NMOS_VTG.inc
Reading file:  /vol/eecs391/FreePDK45/ncsu_basekit/models/hspice/tran_models/models_nom/PMOS_VTG.inc
Reading file:  /vol/eecs391/FreePDK45/ncsu_basekit/models/hspice/tran_models/models_nom/NMOS_VTL.inc
Reading file:  /vol/eecs391/FreePDK45/ncsu_basekit/models/hspice/tran_models/models_nom/PMOS_VTL.inc
Reading file:  /vol/eecs391/FreePDK45/ncsu_basekit/models/hspice/tran_models/models_nom/NMOS_VTH.inc
Reading file:  /vol/eecs391/FreePDK45/ncsu_basekit/models/hspice/tran_models/models_nom/PMOS_VTH.inc
Reading file:  /vol/eecs391/FreePDK45/ncsu_basekit/models/hspice/tran_models/models_nom/NMOS_THKOX.inc
Reading file:  /vol/eecs391/FreePDK45/ncsu_basekit/models/hspice/tran_models/models_nom/PMOS_THKOX.inc
Time for NDB Parsing: CPU = 44.554 ms, elapsed = 178.556 ms.
Time accumulated: CPU = 71.059 ms, elapsed = 178.559 ms.
Peak resident memory used = 114 Mbytes.


Warning from spectre in `NAND2':`I0.I18.I7.I11', in `DFF_sync':`I0.I18.I7', in `sobel_operator_8bit_reg_schematic':`I0.I18', in `shift_reg':`I0', during hierarchy flattening.
    WARNING (SFE-102): "input.scs" 15: Parameter `ld', specified for model `NMOS_VTG' of primitive `bsim4', has been ignored because it is an invalid model parameter. Specify a valid model parameter and rerun the simulation. Type `spectre -h bsim4' to get more information on valid model parameters.
    WARNING (SFE-102): "input.scs" 17: Parameter `ld', specified for model `NMOS_VTG' of primitive `bsim4', has been ignored because it is an invalid model parameter. Specify a valid model parameter and rerun the simulation. Type `spectre -h bsim4' to get more information on valid model parameters.
    WARNING (SFE-32): "/vol/eecs391/FreePDK45/ncsu_basekit/models/hspice/tran_models/models_nom/PMOS_VTG.inc" 3: Duplicate specification for parameter `toxref' (using last value specified).
    WARNING (SFE-102): "input.scs" 19: Parameter `ld', specified for model `PMOS_VTG' of primitive `bsim4', has been ignored because it is an invalid model parameter. Specify a valid model parameter and rerun the simulation. Type `spectre -h bsim4' to get more information on valid model parameters.
    WARNING (SFE-102): "input.scs" 21: Parameter `ld', specified for model `PMOS_VTG' of primitive `bsim4', has been ignored because it is an invalid model parameter. Specify a valid model parameter and rerun the simulation. Type `spectre -h bsim4' to get more information on valid model parameters.
Warning from spectre in `NAND2':`I0.I18.I7.I10', in `DFF_sync':`I0.I18.I7', in `sobel_operator_8bit_reg_schematic':`I0.I18', in `shift_reg':`I0', during hierarchy flattening.
    WARNING (SFE-102): "input.scs" 15: Parameter `ld', specified for model `NMOS_VTG' of primitive `bsim4', has been ignored because it is an invalid model parameter. Specify a valid model parameter and rerun the simulation. Type `spectre -h bsim4' to get more information on valid model parameters.
        Further occurrences of this warning will be suppressed.

Time for Elaboration: CPU = 78.153 ms, elapsed = 84.584 ms.
Time accumulated: CPU = 149.261 ms, elapsed = 263.192 ms.
Peak resident memory used = 124 Mbytes.


Warning from spectre during hierarchy flattening.
    WARNING (SPECTRE-17101): The value 'psf' specified using the 'checklimitdest' option will no longer be supported in future releases.


Time for EDB Visiting: CPU = 15.106 ms, elapsed = 15.126 ms.
Time accumulated: CPU = 164.45 ms, elapsed = 278.4 ms.
Peak resident memory used = 129 Mbytes.


Global user options:
         psfversion = 1.1.0
            vabstol = 1e-06
            iabstol = 1e-12
               temp = 27
               gmin = 1e-12
             rforce = 1
           maxnotes = 5
           maxwarns = 5
             digits = 5
               cols = 80
             pivrel = 0.001
           sensfile = ../psf/sens.output
     checklimitdest = psf
               save = allpub
             reltol = 0.001
               tnom = 27
             scalem = 1
              scale = 1

Scoped user options:

Circuit inventory:
              nodes 675
              bsim4 1296  
            vsource 27    

Analysis and control statement inventory:
               info 7     
               tran 1     

Output statements:
             .probe 0     
           .measure 0     
               save 1     


Notice from spectre.
    1291 warnings suppressed.

Time for parsing: CPU = 104.789 ms, elapsed = 106.988 ms.
Time accumulated: CPU = 269.287 ms, elapsed = 385.437 ms.
Peak resident memory used = 136 Mbytes.

~~~~~~~~~~~~~~~~~~~~~~
Pre-Simulation Summary
~~~~~~~~~~~~~~~~~~~~~~
~~~~~~~~~~~~~~~~~~~~~~
Entering remote command mode using MPSC service (spectre, ipi, v0.0, spectre2_2680034_5, ).

*************************************************
Transient Analysis `tran': time = (0 s -> 150 ns)
*************************************************
DC simulation time: CPU = 201.584 ms, elapsed = 201.994 ms.

Opening the PSFXL file ../psf/tran.tran.tran ...
Important parameter values:
    start = 0 s
    outputstart = 0 s
    stop = 150 ns
    step = 150 ps
    maxstep = 3 ns
    ic = all
    useprevic = no
    skipdc = no
    reltol = 1e-03
    abstol(V) = 1 uV
    abstol(I) = 1 pA
    temp = 27 C
    tnom = 27 C
    tempeffects = all
    errpreset = moderate
    method = traponly
    lteratio = 3.5
    relref = sigglobal
    cmin = 0 F
    gmin = 1 pS


Output and IC/nodeset summary:
                 save   4       (current)
                 save   675     (voltage)


Notice from spectre at time = 1.23843 ns during transient analysis `tran'.
    Found trapezoidal ringing on node I0.I13.I7.I10.M2:int_b.
Notice from spectre at time = 1.31181 ns during transient analysis `tran'.
    Found trapezoidal ringing on node I0.I13.I7.I10.M2:int_b.
Notice from spectre at time = 1.45855 ns during transient analysis `tran'.
    Found trapezoidal ringing on node I0.I13.I7.I10.M2:int_b.
Notice from spectre at time = 1.75204 ns during transient analysis `tran'.
    Found trapezoidal ringing on node I0.I13.I7.I10.M2:int_b.
Notice from spectre at time = 2.33902 ns during transient analysis `tran'.
    Found trapezoidal ringing on node I0.I13.I7.I10.M2:int_b.
        Further occurrences of this notice will be suppressed.

    tran: time = 4.766 ns    (3.18 %), step = 1.254 ns     (836 m%)
    tran: time = 11.39 ns     (7.6 %), step = 169.8 ps     (113 m%)
    tran: time = 19.3 ns     (12.9 %), step = 975.1 ps     (650 m%)
    tran: time = 26.29 ns    (17.5 %), step = 111.6 ps    (74.4 m%)
    tran: time = 34.6 ns     (23.1 %), step = 1.008 ns     (672 m%)
    tran: time = 41.26 ns    (27.5 %), step = 45.09 ps    (30.1 m%)
    tran: time = 49.28 ns    (32.9 %), step = 970.6 ps     (647 m%)
    tran: time = 56.29 ns    (37.5 %), step = 113.5 ps    (75.6 m%)
    tran: time = 63.76 ns    (42.5 %), step = 820.9 ps     (547 m%)
    tran: time = 71.26 ns    (47.5 %), step = 53.14 ps    (35.4 m%)
    tran: time = 78.76 ns    (52.5 %), step = 774.2 ps     (516 m%)
    tran: time = 86.28 ns    (57.5 %), step = 103 ps      (68.7 m%)
    tran: time = 93.76 ns    (62.5 %), step = 821.2 ps     (547 m%)
    tran: time = 101.4 ns    (67.6 %), step = 171.3 ps     (114 m%)
    tran: time = 109.2 ns    (72.8 %), step = 823.2 ps     (549 m%)
    tran: time = 116.3 ns    (77.5 %), step = 73.53 ps      (49 m%)
    tran: time = 124.6 ns    (83.1 %), step = 1.714 ns     (1.14 %)
    tran: time = 131.4 ns    (87.6 %), step = 171.3 ps     (114 m%)
    tran: time = 139.3 ns    (92.9 %), step = 991.4 ps     (661 m%)
    tran: time = 146.3 ns    (97.5 %), step = 113.5 ps    (75.7 m%)
Number of accepted tran steps =             1690

Notice from spectre during transient analysis `tran'.
    Trapezoidal ringing is detected during tran analysis.
        Please use method=trap for better results and performance.


Maximum value achieved for any signal of each quantity: 
V: V(I0.I14.I5.I13.M2:int_g) = 1.195 V
I: I(V1:p) = 19.84 mA
If your circuit contains signals of the same quantity that are vastly different in size (such as high voltage circuitry combined with low voltage control circuitry), you should consider specifying global option `bin_relref=yes'.

~~~~~~~~~~~~~~~~~~~~~~~~~~~~~~~~~
Post-Transient Simulation Summary
~~~~~~~~~~~~~~~~~~~~~~~~~~~~~~~~~
   -   To further speed up simulation, consider
          add ++aps on command line
~~~~~~~~~~~~~~~~~~~~~~~~~~~~~~~~~


During simulation, the CPU load for active processors is :
        Spectre  1 (91.1 %)      2 (3.1 %)       3 (1.8 %)       4 (8.0 %)
                 5 (3.5 %)       6 (1.3 %)       7 (1.4 %)      
        Other   
Initial condition solution time: CPU = 201.629 ms, elapsed = 202.039 ms.
Intrinsic tran analysis time:    CPU = 9.81167 s, elapsed = 9.84203 s.
Total time required for tran analysis `tran': CPU = 10.1346 s, elapsed = 10.1741 s.
Time accumulated: CPU = 10.4491 s, elapsed = 10.6984 s.
Peak resident memory used = 172 Mbytes.


Notice from spectre.
    35 notices suppressed.

finalTimeOP: writing operating point information to rawfile.

Opening the PSF file ../psf/finalTimeOP.info ...
modelParameter: writing model parameter values to rawfile.

Opening the PSF file ../psf/modelParameter.info ...
element: writing instance parameter values to rawfile.

Opening the PSF file ../psf/element.info ...
outputParameter: writing output parameter values to rawfile.

Opening the PSF file ../psf/outputParameter.info ...
designParamVals: writing netlist parameters to rawfile.

Opening the PSFASCII file ../psf/designParamVals.info ...
primitives: writing primitives to rawfile.

Opening the PSFASCII file ../psf/primitives.info.primitives ...
subckts: writing subcircuits to rawfile.

Opening the PSFASCII file ../psf/subckts.info.subckts ...

Aggregate audit (10:26:46 PM, Mon May 2, 2022):
Time used: CPU = 10.5 s, elapsed = 506 s (8m  26.1s), util. = 2.08%.
Time spent in licensing: elapsed = 23.3 ms.
Peak memory used = 172 Mbytes.
Simulation started at: 10:18:20 PM, Mon May 2, 2022, ended at: 10:26:46 PM, Mon May 2, 2022, with elapsed time (wall clock): 506 s (8m  26.1s).
spectre completes with 0 errors, 7 warnings, and 9 notices.
