Spectre (R) Circuit Simulator
Version 18.1.0.556.isr13 64bit -- 10 Dec 2019
Simulating `input.scs' on ras.ece.northwestern.edu at 4:40:57 PM, Mon May 2, 2022 (process id: 2682302).
H = mpsImport( "spectre" "ipi" "v0.0" ?session "spectre1_2680034_3" )
H->sclSetResultDir( "../psf" )
H->sclRun( "all" )
sclCkt0x9d84fa0 = H->sclGetCircuit(  "" )
H->sclQuit(  )
