Spectre (R) Circuit Simulator
Version 18.1.0.556.isr13 64bit -- 10 Dec 2019
Simulating `input.scs' on ras.ece.northwestern.edu at 5:07:22 PM, Tue May 3, 2022 (process id: 2785903).
H = mpsImport( "spectre" "ipi" "v0.0" ?session "spectre0_2741084_6" )
H->sclSetResultDir( "../psf" )
H->sclRun( "all" )
sclCkt0xada2f40 = H->sclGetCircuit(  "" )
H->sclQuit(  )
