
Spectre (R) Circuit Simulator
Version 18.1.0.556.isr13 64bit -- 10 Dec 2019
Copyright (C) 1989-2019 Cadence Design Systems, Inc. All rights reserved worldwide. Cadence and Spectre are registered trademarks of Cadence Design Systems, Inc. All others are the property of their respective holders.

Includes RSA BSAFE(R) Cryptographic or Security Protocol Software from RSA Security, Inc.

User: ckb4640   Host: ras.ece.northwestern.edu   HostID: 69815F07   PID: 2682302
Memory  available: 7.1540 GB  physical: 16.4205 GB
Linux   : Red Hat Enterprise Linux release 8.5 (Ootpa)
CPU Type: Intel(R) Core(TM) i7-9700 CPU @ 3.00GHz
        Socket: Processors [Frequency]
        0:       0 [3000.0],  1 [3000.0],  2 [3000.0],  3 [3000.0],  4 [4499.9]
                 5 [3000.0],  6 [3000.0],  7 [3000.0]
        
System load averages (1min, 5min, 15min) : 3.5 %, 4.5 %, 4.0 %


Simulating `input.scs' on ras.ece.northwestern.edu at 4:40:57 PM, Mon May 2, 2022 (process id: 2682302).
Current working directory: /home/ckb4640/CE_392/simulation/test_DFF_syn/spectre/schematic/netlist
Command line:
    /vol/cadence2018/SPECTRE181/tools/bin/spectre -64 input.scs  \
        +escchars +log ../psf/spectre.out +inter=mpsc  \
        +mpssession=spectre1_2680034_3 -format psfxl -raw ../psf  \
        +lqtimeout 900 -maxw 5 -maxn 5
spectre pid = 2682302

Loading /vol/cadence2018/SPECTRE181/tools.lnx86/cmi/lib/64bit/5.0/libinfineon_sh.so ...
Loading /vol/cadence2018/SPECTRE181/tools.lnx86/cmi/lib/64bit/5.0/libphilips_o_sh.so ...
Loading /vol/cadence2018/SPECTRE181/tools.lnx86/cmi/lib/64bit/5.0/libphilips_sh.so ...
Loading /vol/cadence2018/SPECTRE181/tools.lnx86/cmi/lib/64bit/5.0/libsparam_sh.so ...
Loading /vol/cadence2018/SPECTRE181/tools.lnx86/cmi/lib/64bit/5.0/libstmodels_sh.so ...
Reading file:  /home/ckb4640/CE_392/simulation/test_DFF_syn/spectre/schematic/netlist/input.scs
Reading file:  /vol/cadence2018/SPECTRE181/tools.lnx86/spectre/etc/configs/spectre.cfg
Reading file:  /vol/eecs391/FreePDK45/ncsu_basekit/models/hspice/hspice_nom.include
Reading file:  /vol/eecs391/FreePDK45/ncsu_basekit/models/hspice/tran_models/models_nom/NMOS_VTG.inc
Reading file:  /vol/eecs391/FreePDK45/ncsu_basekit/models/hspice/tran_models/models_nom/PMOS_VTG.inc
Reading file:  /vol/eecs391/FreePDK45/ncsu_basekit/models/hspice/tran_models/models_nom/NMOS_VTL.inc
Reading file:  /vol/eecs391/FreePDK45/ncsu_basekit/models/hspice/tran_models/models_nom/PMOS_VTL.inc
Reading file:  /vol/eecs391/FreePDK45/ncsu_basekit/models/hspice/tran_models/models_nom/NMOS_VTH.inc
Reading file:  /vol/eecs391/FreePDK45/ncsu_basekit/models/hspice/tran_models/models_nom/PMOS_VTH.inc
Reading file:  /vol/eecs391/FreePDK45/ncsu_basekit/models/hspice/tran_models/models_nom/NMOS_THKOX.inc
Reading file:  /vol/eecs391/FreePDK45/ncsu_basekit/models/hspice/tran_models/models_nom/PMOS_THKOX.inc
Time for NDB Parsing: CPU = 43.387 ms, elapsed = 89.433 ms.
Time accumulated: CPU = 67.922 ms, elapsed = 89.4351 ms.
Peak resident memory used = 111 Mbytes.


Warning from spectre in `NAND2':`I0.I13', in `DFF_sync':`I0', during hierarchy flattening.
    WARNING (SFE-102): "input.scs" 15: Parameter `ld', specified for model `NMOS_VTG' of primitive `bsim4', has been ignored because it is an invalid model parameter. Specify a valid model parameter and rerun the simulation. Type `spectre -h bsim4' to get more information on valid model parameters.
    WARNING (SFE-102): "input.scs" 17: Parameter `ld', specified for model `NMOS_VTG' of primitive `bsim4', has been ignored because it is an invalid model parameter. Specify a valid model parameter and rerun the simulation. Type `spectre -h bsim4' to get more information on valid model parameters.
    WARNING (SFE-32): "/vol/eecs391/FreePDK45/ncsu_basekit/models/hspice/tran_models/models_nom/PMOS_VTG.inc" 3: Duplicate specification for parameter `toxref' (using last value specified).
    WARNING (SFE-102): "input.scs" 19: Parameter `ld', specified for model `PMOS_VTG' of primitive `bsim4', has been ignored because it is an invalid model parameter. Specify a valid model parameter and rerun the simulation. Type `spectre -h bsim4' to get more information on valid model parameters.
    WARNING (SFE-102): "input.scs" 21: Parameter `ld', specified for model `PMOS_VTG' of primitive `bsim4', has been ignored because it is an invalid model parameter. Specify a valid model parameter and rerun the simulation. Type `spectre -h bsim4' to get more information on valid model parameters.
Warning from spectre in `NAND2':`I0.I12', in `DFF_sync':`I0', during hierarchy flattening.
    WARNING (SFE-102): "input.scs" 15: Parameter `ld', specified for model `NMOS_VTG' of primitive `bsim4', has been ignored because it is an invalid model parameter. Specify a valid model parameter and rerun the simulation. Type `spectre -h bsim4' to get more information on valid model parameters.
        Further occurrences of this warning will be suppressed.

Time for Elaboration: CPU = 12.38 ms, elapsed = 12.7971 ms.
Time accumulated: CPU = 80.351 ms, elapsed = 102.28 ms.
Peak resident memory used = 119 Mbytes.


Warning from spectre during hierarchy flattening.
    WARNING (SPECTRE-17101): The value 'psf' specified using the 'checklimitdest' option will no longer be supported in future releases.


Time for EDB Visiting: CPU = 465 us, elapsed = 468.016 us.
Time accumulated: CPU = 80.865 ms, elapsed = 102.795 ms.
Peak resident memory used = 119 Mbytes.


Global user options:
         psfversion = 1.1.0
            vabstol = 1e-06
            iabstol = 1e-12
               temp = 27
               gmin = 1e-12
             rforce = 1
           maxnotes = 5
           maxwarns = 5
             digits = 5
               cols = 80
             pivrel = 0.001
           sensfile = ../psf/sens.output
     checklimitdest = psf
               save = allpub
             reltol = 0.001
               tnom = 27
             scalem = 1
              scale = 1

Scoped user options:

Circuit inventory:
              nodes 13
              bsim4 18    
            vsource 4     

Analysis and control statement inventory:
               info 7     
               tran 1     

Output statements:
             .probe 0     
           .measure 0     
               save 1     


Notice from spectre.
    13 warnings suppressed.

Time for parsing: CPU = 1.32 ms, elapsed = 2.98309 ms.
Time accumulated: CPU = 82.225 ms, elapsed = 105.817 ms.
Peak resident memory used = 123 Mbytes.

~~~~~~~~~~~~~~~~~~~~~~
Pre-Simulation Summary
~~~~~~~~~~~~~~~~~~~~~~
~~~~~~~~~~~~~~~~~~~~~~
Entering remote command mode using MPSC service (spectre, ipi, v0.0, spectre1_2680034_3, ).

*************************************************
Transient Analysis `tran': time = (0 s -> 100 ns)
*************************************************
DC simulation time: CPU = 1.252 ms, elapsed = 1.25504 ms.

Opening the PSFXL file ../psf/tran.tran.tran ...
Important parameter values:
    start = 0 s
    outputstart = 0 s
    stop = 100 ns
    step = 100 ps
    maxstep = 2 ns
    ic = all
    useprevic = no
    skipdc = no
    reltol = 1e-03
    abstol(V) = 1 uV
    abstol(I) = 1 pA
    temp = 27 C
    tnom = 27 C
    tempeffects = all
    errpreset = moderate
    method = traponly
    lteratio = 3.5
    relref = sigglobal
    cmin = 0 F
    gmin = 1 pS


Output and IC/nodeset summary:
                 save   3       (current)
                 save   13      (voltage)

    tran: time = 2.642 ns    (2.64 %), step = 783 ps       (783 m%)

Notice from spectre at time = 4.20838 ns during transient analysis `tran'.
    Found trapezoidal ringing on node V1:p.
Notice from spectre at time = 6.02 ns during transient analysis `tran'.
    Found trapezoidal ringing on node V1:p.

    tran: time = 7.981 ns    (7.98 %), step = 612.5 ps     (613 m%)
    tran: time = 12.94 ns    (12.9 %), step = 600.4 ps     (600 m%)
    tran: time = 17.7 ns     (17.7 %), step = 519.5 ps     (520 m%)
    tran: time = 22.94 ns    (22.9 %), step = 600.1 ps     (600 m%)
    tran: time = 27.7 ns     (27.7 %), step = 519.5 ps     (520 m%)
    tran: time = 32.53 ns    (32.5 %), step = 428.8 ps     (429 m%)
    tran: time = 37.99 ns      (38 %), step = 555.8 ps     (556 m%)

Notice from spectre at time = 40.2073 ns during transient analysis `tran'.
    Found trapezoidal ringing on node I0.I14.M1:dbnode.
Notice from spectre at time = 40.3896 ns during transient analysis `tran'.
    Found trapezoidal ringing on node I0.I14.M1:dbnode.
Notice from spectre at time = 40.7541 ns during transient analysis `tran'.
    Found trapezoidal ringing on node I0.I14.M1:dbnode.
        Further occurrences of this notice will be suppressed.

    tran: time = 43.16 ns    (43.2 %), step = 1.044 ns     (1.04 %)
    tran: time = 47.98 ns      (48 %), step = 613.5 ps     (613 m%)
    tran: time = 52.94 ns    (52.9 %), step = 600.4 ps     (600 m%)
    tran: time = 57.7 ns     (57.7 %), step = 519.5 ps     (520 m%)
    tran: time = 62.53 ns    (62.5 %), step = 428.8 ps     (429 m%)
    tran: time = 67.99 ns      (68 %), step = 555.8 ps     (556 m%)
    tran: time = 72.59 ns    (72.6 %), step = 768.5 ps     (769 m%)
    tran: time = 77.59 ns    (77.6 %), step = 441.4 ps     (441 m%)
    tran: time = 83 ns         (83 %), step = 962.1 ps     (962 m%)
    tran: time = 87.98 ns      (88 %), step = 613.1 ps     (613 m%)
    tran: time = 92.94 ns    (92.9 %), step = 600.4 ps     (600 m%)
    tran: time = 97.7 ns     (97.7 %), step = 519.5 ps     (520 m%)
Number of accepted tran steps =             908

Notice from spectre during transient analysis `tran'.
    Trapezoidal ringing is detected during tran analysis.
        Please use method=trap for better results and performance.


Maximum value achieved for any signal of each quantity: 
V: V(I0.I13.M2:int_g) = 1.194 V
I: I(V1:p) = 418.3 uA
If your circuit contains signals of the same quantity that are vastly different in size (such as high voltage circuitry combined with low voltage control circuitry), you should consider specifying global option `bin_relref=yes'.

~~~~~~~~~~~~~~~~~~~~~~~~~~~~~~~~~
Post-Transient Simulation Summary
~~~~~~~~~~~~~~~~~~~~~~~~~~~~~~~~~
   -   To further speed up simulation, consider
          add ++aps on command line
~~~~~~~~~~~~~~~~~~~~~~~~~~~~~~~~~


During simulation, the CPU load for active processors is :
        Spectre  0 (5.0 %)       3 (17.4 %)      4 (66.7 %)      5 (5.0 %)
                 6 (4.5 %)       7 (19.0 %)     
        Other   
Initial condition solution time: CPU = 1.279 ms, elapsed = 1.28388 ms.
Intrinsic tran analysis time:    CPU = 96.223 ms, elapsed = 107.294 ms.
Total time required for tran analysis `tran': CPU = 99.282 ms, elapsed = 116.025 ms.
Time accumulated: CPU = 186.811 ms, elapsed = 261.802 ms.
Peak resident memory used = 127 Mbytes.


Notice from spectre.
    20 notices suppressed.

finalTimeOP: writing operating point information to rawfile.

Opening the PSF file ../psf/finalTimeOP.info ...
modelParameter: writing model parameter values to rawfile.

Opening the PSF file ../psf/modelParameter.info ...
element: writing instance parameter values to rawfile.

Opening the PSF file ../psf/element.info ...
outputParameter: writing output parameter values to rawfile.

Opening the PSF file ../psf/outputParameter.info ...
designParamVals: writing netlist parameters to rawfile.

Opening the PSFASCII file ../psf/designParamVals.info ...
primitives: writing primitives to rawfile.

Opening the PSFASCII file ../psf/primitives.info.primitives ...
subckts: writing subcircuits to rawfile.

Opening the PSFASCII file ../psf/subckts.info.subckts ...

Aggregate audit (4:41:26 PM, Mon May 2, 2022):
Time used: CPU = 195 ms, elapsed = 28.7 s, util. = 682e-03%.
Time spent in licensing: elapsed = 12.5 ms.
Peak memory used = 129 Mbytes.
Simulation started at: 4:40:57 PM, Mon May 2, 2022, ended at: 4:41:26 PM, Mon May 2, 2022, with elapsed time (wall clock): 28.7 s.
spectre completes with 0 errors, 7 warnings, and 9 notices.
